3
Properties=species:S:1:pos:R:3:forces:R:3 energy=-14.264740261717552 free_energy=-14.264740261717552 stress="-3.7675523368635896e-07 -1.2908891923920176e-25 1.3251953934276766e-19 -1.2908891923920176e-25 -7.70132887000264e-41 4.599576095271705e-24 1.3251953934276766e-19 4.599576095271705e-24 -2.7486499979335307e-07" pbc="F F F"
O       -0.00000000       0.00000000      -0.06782297       0.00000000       0.00000000      -0.06678197
H        0.76016735       0.00000000       0.53819549       0.03648764      -0.00000000       0.03339099
H       -0.76016735      -0.00000000       0.53819549      -0.03648764      -0.00000000       0.03339099
